&NAMRUN
outdir = '06Aug_test1'
time = 50400 
dtime = 1,
atime = 60,
atime_vert = 1800,
h_max = 3000,
latt = 61.83,
long = 24.29, 
day = 200,
hour = 5,
/

&NAMDYN
zi0 = 975.0,
beta = 0.20,
wsls = 1.5e-05
wthetasmax = 0.25182778229,
c_wth = .false.,
!gamma = 0.0037
gamma  = 0.0047
thetam0 = 292.5,
dtheta0 = 0.5, 
pressure = 1000.0,
wqsmax = 0.076323212,
gammaq =-0.0027,
qm0 =8.0,
dq0 =-0.5,
wcsmax = 0,
gammac = 0.0,
cm0 = 0,
dc0 = 0.0,
c_ustr = .true.,
z0 = 0.1,
uws0 = 0,
vws0 = 0,
gammau = 0,
gammav = 0,
um0 = 0,
vm0 = 0,
ug = 0,
vg = 0,
advq =-0.0e-04,
advtheta = -3.0e-5,
ladvecFT = .true. 
/

&NAMCHEM
lchem = .true.,
lcomplex = .false.,
lwritepl = .true.,
ldiuvar = .true.,
h_ref   = 12.,

lflux     = .false.,
fluxstart = 5.,
fluxend   = 17.,

lchconst  = .false.,
t_ref_cbl = 300.,
p_ref_cbl = 1000,
q_ref_cbl = 4.0,
t_ref_ft  = 300.,
p_ref_ft  = 1000.,
q_ref_ft  = 4.0
/

&NAMFLUX
starttime_wt = -5400
endtime_wt   =  46800
offset_wt    = 0
function_wt  = 4

starttime_wq =  -8100
endtime_wq   =  50400
offset_wq    = 0.0
function_wq  = 4

!starttime_chem = 
!endtime_chem =
/
